LAMMPS (11 May 2018)
units      real
dimension  3
boundary   p p p
atom_style full
read_data IniData.dat
  orthogonal box = (0 0 0) to (61.06 31.9736 75)
  reading atoms ...
  11062 atoms
  scanning bonds ...
  scanning angles ...
  reading bonds ...
  6408 bonds
  reading angles ...
  3204 angles

##  set charges
group cb type 3
1450 atoms in group cb
group ox type 2
3204 atoms in group ox
group hy type 1
6408 atoms in group hy
group H2O union hy ox
9612 atoms in group H2O
set group ox charge -0.834
  3204 settings made for charge
set group hy charge 0.417
  6408 settings made for charge
set group cb charge 0
  1450 settings made for charge

###Define layers

region upperlayer block INF INF INF INF 40 42 units box
group upperlayer region upperlayer
725 atoms in group upperlayer

region lowerlayer block INF INF INF INF 33 35 units box
group lowerlayer region lowerlayer
725 atoms in group lowerlayer

group layers union upperlayer lowerlayer
1450 atoms in group layers

###Define water reservoir

region lowerreservoir block INF INF INF INF INF 33 units box
group lowerreservoir region lowerreservoir
4806 atoms in group lowerreservoir

###Define gates

region upgate block 17.5 27.5 INF INF 40 42 units box
group upgate region upgate
113 atoms in group upgate

region lowgate block 32.5 42.5 INF INF 33 35 units box
group lowgate region lowgate
112 atoms in group lowgate

group gate union upgate lowgate
225 atoms in group gate

###Define channel

region channel block INF INF INF INF 34 41 units box
group channel dynamic ox region channel every 10
dynamic group channel defined
group channel1 region channel
1450 atoms in group channel1

region exchannel1 block INF INF INF INF 41 INF units box
group Exchannel dynamic all region exchannel1 every 1
dynamic group Exchannel defined

### Rigid TIP3P Potential Parameters ###
pair_style lj/charmm/coul/long 10.0 12.0
pair_coeff 2 2 0.1521 3.1506
pair_coeff 1 1 0.046 0.4
pair_coeff 1 2 0.08364 1.7753
pair_coeff 3 3 0.07 3.98
pair_coeff 1 3 0 0
pair_coeff 2 3 0.0936902 3.19

bond_style  harmonic
bond_coeff  1 450 0.9572
angle_style harmonic
angle_coeff 1 55 104.52
kspace_style pppm 1.0e-5

velocity H2O create 300.0 123456789 sum yes units box
velocity cb set 0 0 0 sum yes units box
compute myTemp H2O temp/com

neighbor 2.0 bin
neigh_modify delay 0 every 1 check yes
thermo      1000
thermo_style custom step temp press vol
thermo_modify norm no flush yes
timestep 0.5

fix RigidH2O H2O shake 0.0001 500 0 b 1 a 1
fix 1 H2O nvt temp 298 298 50
fix freeze cb setforce 0.0 0.0 0.0
fix_modify 1 temp myTemp

#Define variables to calculate the average velocity and the number of water molecules inside the channel
variable	channelONum equal count(ox,channel)
variable	ExchannelONum equal count(ox,exchannel1)
variable	adforce equal -28.0902/v_ExchannelONum
compute	channelOVel channel reduce ave vz
compute	Exchannel0Vel Exchannel reduce ave vz

#Calculate the average values overtime
fix 2 all ave/time 100 10 1000 v_channelONum c_channelOVel c_Exchannel0Vel file waterflux.profile
fix 	3	all 	ave/time	100	10	1000	v_ExchannelONum		file waterflux2.profile

#run variables
dump waterdump all atom 1000 298K.1Bar.dump
run 10000
PPPM initialization ...
  G vector (1/distance) = 0.248719
  grid = 40 24 45
  stencil order = 5
  estimated absolute RMS force accuracy = 0.00304493
  estimated relative force accuracy = 9.16972e-06
  3d grid and FFT values/proc = 15066 5760
  update every 1 steps, delay 0 steps, check yes
Step Temp Press Volume
0    366.97213 2.7044821e+08    146423.24
Averages over the last 6 of 11 rows, steps 5000 to 10000:
Temp Press Volume
244.318 2.70433e+08 146423
Loop time of 296.522 on 8 procs for 10000 steps with 11062 atoms

#deform the simulation box to obtain the correct water density
fix def all deform 1 z final 5.444 69.556 units box remap none
run 40000
PPPM initialization ...
  G vector (1/distance) = 0.248719
  grid = 40 24 45
  stencil order = 5
  estimated absolute RMS force accuracy = 0.00304493
  estimated relative force accuracy = 9.16972e-06
  3d grid and FFT values/proc = 15066 5760
Step Temp Press Volume
10000    247.86295 2.7043306e+08    146423.24
Averages over the last 21 of 41 rows, steps 30000 to 50000:
Temp Press Volume
243.329 3.03661e+08 130481
Loop time of 1215.21 on 8 procs for 40000 steps with 11062 atoms

unfix def

#After the deformation, let the system to relax for a while to avoid unnormal states.
run 10000
PPPM initialization ...
  G vector (1/distance) = 0.24957
  grid = 40 24 40
  stencil order = 5
  estimated absolute RMS force accuracy = 0.00309852
  estimated relative force accuracy = 9.33109e-06
  3d grid and FFT values/proc = 14229 4800
Step Temp Press Volume
50000    242.75305 3.1636059e+08    125166.49
Averages over the last 6 of 11 rows, steps 55000 to 60000:
Temp Press Volume
242.947 3.1636e+08 125166
Loop time of 284.75 on 8 procs for 10000 steps with 11062 atoms

undump waterdump

region upperreservoir block INF INF INF INF 42 INF units box
group  upperreservoir region upperreservoir
4848 atoms in group upperreservoir

compute	msdin	upperreservoir	msd
fix	4	all	ave/time	100	10	1000	c_msdin	file	msd.profile	mode	vector

compute den1 ox chunk/atom bin/1d x lower 0.5 bound z 34 41 #command to divide the region into cells
compute den2 ox chunk/atom bin/2d x lower 0.5 bound z 34 41
ERROR: Illegal compute chunk/atom command (../compute_chunk_atom.cpp:1965)
Last command: compute den2 ox chunk/atom bin/2d x lower 0.5 bound z 34 41
